
.SUBCKT sky130_fd_sc_hd__sdlclkp_2 CLK GATE SCE VGND VNB VPB VPWR GCLK
MI662 net88 m1 VPWR VPB pfet_01v8_hvt m=1 w=0.42 l=0.15 mult=1
+ sa=0.265 sb=0.265 sd=0.28 topography=normal area=0.063 perim=1.14
MI664 M0 clkpos net88 VPB pfet_01v8_hvt m=1 w=0.42 l=0.15 mult=1
+ sa=0.265 sb=0.265 sd=0.28 topography=normal area=0.063 perim=1.14
MI659 net76 CLK VPWR VPB pfet_01v8_hvt m=1 w=0.64 l=0.15 mult=1
+ sa=0.265 sb=0.265 sd=0.28 topography=normal area=0.063 perim=1.14
MI658 net76 m1 VPWR VPB pfet_01v8_hvt m=1 w=0.64 l=0.15 mult=1
+ sa=0.265 sb=0.265 sd=0.28 topography=normal area=0.063 perim=1.14
MI19 m1 M0 VPWR VPB pfet_01v8_hvt m=1 w=1.0 l=0.15 mult=1 sa=0.265
+ sb=0.265 sd=0.28 topography=normal area=0.063 perim=1.14
MI22 net63 SCE VPWR VPB pfet_01v8_hvt m=1 w=0.64 l=0.15 mult=1
+ sa=0.265 sb=0.265 sd=0.28 topography=normal area=0.063 perim=1.14
MI21 net116 GATE net63 VPB pfet_01v8_hvt m=1 w=0.64 l=0.15 mult=1
+ sa=0.265 sb=0.265 sd=0.28 topography=normal area=0.063 perim=1.14
MI47 clkneg clkpos VPWR VPB pfet_01v8_hvt m=1 w=0.64 l=0.15 mult=1
+ sa=0.265 sb=0.265 sd=0.28 topography=normal area=0.063 perim=1.14
MI45 clkpos CLK VPWR VPB pfet_01v8_hvt m=1 w=0.64 l=0.15 mult=1
+ sa=0.265 sb=0.265 sd=0.28 topography=normal area=0.063 perim=1.14
MI660 GCLK net76 VPWR VPB pfet_01v8_hvt m=2 w=1.0 l=0.15 mult=1
+ sa=0.265 sb=0.265 sd=0.28 topography=normal area=0.063 perim=1.14
MI43 net116 clkneg M0 VPB pfet_01v8_hvt m=1 w=0.42 l=0.15 mult=1
+ sa=0.265 sb=0.265 sd=0.28 topography=normal area=0.063 perim=1.14
MI42 net116 clkpos M0 VNB nfet_01v8 m=1 w=0.36 l=0.15 mult=1 sa=0.265
+ sb=0.265 sd=0.28 topography=normal area=0.063 perim=1.14
MI20 m1 M0 VGND VNB nfet_01v8 m=1 w=0.65 l=0.15 mult=1 sa=0.265
+ sb=0.265 sd=0.28 topography=normal area=0.063 perim=1.14
MI655 M0 clkneg net123 VNB nfet_01v8 m=1 w=0.36 l=0.15 mult=1 sa=0.265
+ sb=0.265 sd=0.28 topography=normal area=0.063 perim=1.14
MI654 net123 m1 VGND VNB nfet_01v8 m=1 w=0.42 l=0.15 mult=1 sa=0.265
+ sb=0.265 sd=0.28 topography=normal area=0.063 perim=1.14
MI24 net116 SCE VGND VNB nfet_01v8 m=1 w=0.42 l=0.15 mult=1 sa=0.265
+ sb=0.265 sd=0.28 topography=normal area=0.063 perim=1.14
MI657 net112 CLK VGND VNB nfet_01v8 m=1 w=0.42 l=0.15 mult=1 sa=0.265
+ sb=0.265 sd=0.28 topography=normal area=0.063 perim=1.14
MI656 net76 m1 net112 VNB nfet_01v8 m=1 w=0.42 l=0.15 mult=1 sa=0.265
+ sb=0.265 sd=0.28 topography=normal area=0.063 perim=1.14
MI23 net116 GATE VGND VNB nfet_01v8 m=1 w=0.42 l=0.15 mult=1 sa=0.265
+ sb=0.265 sd=0.28 topography=normal area=0.063 perim=1.14
MI46 clkneg clkpos VGND VNB nfet_01v8 m=1 w=0.42 l=0.15 mult=1
+ sa=0.265 sb=0.265 sd=0.28 topography=normal area=0.063 perim=1.14
MI44 clkpos CLK VGND VNB nfet_01v8 m=1 w=0.42 l=0.15 mult=1 sa=0.265
+ sb=0.265 sd=0.28 topography=normal area=0.063 perim=1.14
MI653 GCLK net76 VGND VNB nfet_01v8 m=2 w=0.65 l=0.15 mult=1 sa=0.265
+ sb=0.265 sd=0.28 topography=normal area=0.063 perim=1.14
.ENDS




.SUBCKT sky130_fd_sc_hd__sdlclkp_1 CLK GATE SCE VGND VNB VPB VPWR GCLK
MI662 net88 m1 VPWR VPB pfet_01v8_hvt m=1 w=0.42 l=0.15 mult=1
+ sa=0.265 sb=0.265 sd=0.28 topography=normal area=0.063 perim=1.14
MI664 M0 clkpos net88 VPB pfet_01v8_hvt m=1 w=0.42 l=0.15 mult=1
+ sa=0.265 sb=0.265 sd=0.28 topography=normal area=0.063 perim=1.14
MI659 net76 CLK VPWR VPB pfet_01v8_hvt m=1 w=0.64 l=0.15 mult=1
+ sa=0.265 sb=0.265 sd=0.28 topography=normal area=0.063 perim=1.14
MI658 net76 m1 VPWR VPB pfet_01v8_hvt m=1 w=0.64 l=0.15 mult=1
+ sa=0.265 sb=0.265 sd=0.28 topography=normal area=0.063 perim=1.14
MI19 m1 M0 VPWR VPB pfet_01v8_hvt m=1 w=1.0 l=0.15 mult=1 sa=0.265
+ sb=0.265 sd=0.28 topography=normal area=0.063 perim=1.14
MI22 net63 SCE VPWR VPB pfet_01v8_hvt m=1 w=0.64 l=0.15 mult=1
+ sa=0.265 sb=0.265 sd=0.28 topography=normal area=0.063 perim=1.14
MI21 net116 GATE net63 VPB pfet_01v8_hvt m=1 w=0.64 l=0.15 mult=1
+ sa=0.265 sb=0.265 sd=0.28 topography=normal area=0.063 perim=1.14
MI47 clkneg clkpos VPWR VPB pfet_01v8_hvt m=1 w=0.64 l=0.15 mult=1
+ sa=0.265 sb=0.265 sd=0.28 topography=normal area=0.063 perim=1.14
MI45 clkpos CLK VPWR VPB pfet_01v8_hvt m=1 w=0.64 l=0.15 mult=1
+ sa=0.265 sb=0.265 sd=0.28 topography=normal area=0.063 perim=1.14
MI660 GCLK net76 VPWR VPB pfet_01v8_hvt m=1 w=1.0 l=0.15 mult=1
+ sa=0.265 sb=0.265 sd=0.28 topography=normal area=0.063 perim=1.14
MI43 net116 clkneg M0 VPB pfet_01v8_hvt m=1 w=0.42 l=0.15 mult=1
+ sa=0.265 sb=0.265 sd=0.28 topography=normal area=0.063 perim=1.14
MI42 net116 clkpos M0 VNB nfet_01v8 m=1 w=0.36 l=0.15 mult=1 sa=0.265
+ sb=0.265 sd=0.28 topography=normal area=0.063 perim=1.14
MI20 m1 M0 VGND VNB nfet_01v8 m=1 w=0.65 l=0.15 mult=1 sa=0.265
+ sb=0.265 sd=0.28 topography=normal area=0.063 perim=1.14
MI655 M0 clkneg net123 VNB nfet_01v8 m=1 w=0.36 l=0.15 mult=1 sa=0.265
+ sb=0.265 sd=0.28 topography=normal area=0.063 perim=1.14
MI654 net123 m1 VGND VNB nfet_01v8 m=1 w=0.42 l=0.15 mult=1 sa=0.265
+ sb=0.265 sd=0.28 topography=normal area=0.063 perim=1.14
MI24 net116 SCE VGND VNB nfet_01v8 m=1 w=0.42 l=0.15 mult=1 sa=0.265
+ sb=0.265 sd=0.28 topography=normal area=0.063 perim=1.14
MI657 net112 CLK VGND VNB nfet_01v8 m=1 w=0.42 l=0.15 mult=1 sa=0.265
+ sb=0.265 sd=0.28 topography=normal area=0.063 perim=1.14
MI656 net76 m1 net112 VNB nfet_01v8 m=1 w=0.42 l=0.15 mult=1 sa=0.265
+ sb=0.265 sd=0.28 topography=normal area=0.063 perim=1.14
MI23 net116 GATE VGND VNB nfet_01v8 m=1 w=0.42 l=0.15 mult=1 sa=0.265
+ sb=0.265 sd=0.28 topography=normal area=0.063 perim=1.14
MI46 clkneg clkpos VGND VNB nfet_01v8 m=1 w=0.42 l=0.15 mult=1
+ sa=0.265 sb=0.265 sd=0.28 topography=normal area=0.063 perim=1.14
MI44 clkpos CLK VGND VNB nfet_01v8 m=1 w=0.42 l=0.15 mult=1 sa=0.265
+ sb=0.265 sd=0.28 topography=normal area=0.063 perim=1.14
MI653 GCLK net76 VGND VNB nfet_01v8 m=1 w=0.65 l=0.15 mult=1 sa=0.265
+ sb=0.265 sd=0.28 topography=normal area=0.063 perim=1.14
.ENDS




.SUBCKT sky130_fd_sc_hd__sdlclkp_4 CLK GATE SCE VGND VNB VPB VPWR GCLK
MI662 net88 m1 VPWR VPB pfet_01v8_hvt m=1 w=0.42 l=0.15 mult=1
+ sa=0.265 sb=0.265 sd=0.28 topography=normal area=0.063 perim=1.14
MI664 M0 clkpos net88 VPB pfet_01v8_hvt m=1 w=0.42 l=0.15 mult=1
+ sa=0.265 sb=0.265 sd=0.28 topography=normal area=0.063 perim=1.14
MI659 net76 CLK VPWR VPB pfet_01v8_hvt m=1 w=1.0 l=0.15 mult=1
+ sa=0.265 sb=0.265 sd=0.28 topography=normal area=0.063 perim=1.14
MI658 net76 m1 VPWR VPB pfet_01v8_hvt m=1 w=1.0 l=0.15 mult=1 sa=0.265
+ sb=0.265 sd=0.28 topography=normal area=0.063 perim=1.14
MI19 m1 M0 VPWR VPB pfet_01v8_hvt m=1 w=1.0 l=0.15 mult=1 sa=0.265
+ sb=0.265 sd=0.28 topography=normal area=0.063 perim=1.14
MI22 net63 SCE VPWR VPB pfet_01v8_hvt m=1 w=0.64 l=0.15 mult=1
+ sa=0.265 sb=0.265 sd=0.28 topography=normal area=0.063 perim=1.14
MI21 net116 GATE net63 VPB pfet_01v8_hvt m=1 w=0.64 l=0.15 mult=1
+ sa=0.265 sb=0.265 sd=0.28 topography=normal area=0.063 perim=1.14
MI47 clkneg clkpos VPWR VPB pfet_01v8_hvt m=1 w=0.64 l=0.15 mult=1
+ sa=0.265 sb=0.265 sd=0.28 topography=normal area=0.063 perim=1.14
MI45 clkpos CLK VPWR VPB pfet_01v8_hvt m=1 w=0.64 l=0.15 mult=1
+ sa=0.265 sb=0.265 sd=0.28 topography=normal area=0.063 perim=1.14
MI660 GCLK net76 VPWR VPB pfet_01v8_hvt m=4 w=1.0 l=0.15 mult=1
+ sa=0.265 sb=0.265 sd=0.28 topography=normal area=0.063 perim=1.14
MI43 net116 clkneg M0 VPB pfet_01v8_hvt m=1 w=0.42 l=0.15 mult=1
+ sa=0.265 sb=0.265 sd=0.28 topography=normal area=0.063 perim=1.14
MI42 net116 clkpos M0 VNB nfet_01v8 m=1 w=0.36 l=0.15 mult=1 sa=0.265
+ sb=0.265 sd=0.28 topography=normal area=0.063 perim=1.14
MI20 m1 M0 VGND VNB nfet_01v8 m=1 w=0.65 l=0.15 mult=1 sa=0.265
+ sb=0.265 sd=0.28 topography=normal area=0.063 perim=1.14
MI655 M0 clkneg net123 VNB nfet_01v8 m=1 w=0.36 l=0.15 mult=1 sa=0.265
+ sb=0.265 sd=0.28 topography=normal area=0.063 perim=1.14
MI654 net123 m1 VGND VNB nfet_01v8 m=1 w=0.42 l=0.15 mult=1 sa=0.265
+ sb=0.265 sd=0.28 topography=normal area=0.063 perim=1.14
MI24 net116 SCE VGND VNB nfet_01v8 m=1 w=0.42 l=0.15 mult=1 sa=0.265
+ sb=0.265 sd=0.28 topography=normal area=0.063 perim=1.14
MI657 net112 CLK VGND VNB nfet_01v8 m=1 w=0.65 l=0.15 mult=1 sa=0.265
+ sb=0.265 sd=0.28 topography=normal area=0.063 perim=1.14
MI656 net76 m1 net112 VNB nfet_01v8 m=1 w=0.65 l=0.15 mult=1 sa=0.265
+ sb=0.265 sd=0.28 topography=normal area=0.063 perim=1.14
MI23 net116 GATE VGND VNB nfet_01v8 m=1 w=0.42 l=0.15 mult=1 sa=0.265
+ sb=0.265 sd=0.28 topography=normal area=0.063 perim=1.14
MI46 clkneg clkpos VGND VNB nfet_01v8 m=1 w=0.42 l=0.15 mult=1
+ sa=0.265 sb=0.265 sd=0.28 topography=normal area=0.063 perim=1.14
MI44 clkpos CLK VGND VNB nfet_01v8 m=1 w=0.42 l=0.15 mult=1 sa=0.265
+ sb=0.265 sd=0.28 topography=normal area=0.063 perim=1.14
MI653 GCLK net76 VGND VNB nfet_01v8 m=4 w=0.65 l=0.15 mult=1 sa=0.265
+ sb=0.265 sd=0.28 topography=normal area=0.063 perim=1.14
.ENDS




.SUBCKT sky130_fd_sc_hd__einvp_4 A TE VGND VNB VPB VPWR Z
MMN0 Z A sndA VNB nfet_01v8 m=4 w=0.65 l=0.15 mult=1 sa=0.265 sb=0.265
+ sd=0.28 topography=normal area=0.063 perim=1.14
MMN1 sndA TE VGND VNB nfet_01v8 m=4 w=0.65 l=0.15 mult=1 sa=0.265
+ sb=0.265 sd=0.28 topography=normal area=0.063 perim=1.14
MMIN1 TEB TE VGND VNB nfet_01v8 m=1 w=0.65 l=0.15 mult=1 sa=0.265
+ sb=0.265 sd=0.28 topography=normal area=0.063 perim=1.14
MMP0 VPWR TEB sndTEB VPB pfet_01v8_hvt m=4 w=0.94 l=0.15 mult=1
+ sa=0.265 sb=0.265 sd=0.28 topography=normal area=0.063 perim=1.14
MMP1 sndTEB A Z VPB pfet_01v8_hvt m=4 w=1.0 l=0.15 mult=1 sa=0.265
+ sb=0.265 sd=0.28 topography=normal area=0.063 perim=1.14
MMIP1 TEB TE VPWR VPB pfet_01v8_hvt m=1 w=1.0 l=0.15 mult=1 sa=0.265
+ sb=0.265 sd=0.28 topography=normal area=0.063 perim=1.14
.ENDS




.SUBCKT sky130_fd_sc_hd__einvp_2 A TE VGND VNB VPB VPWR Z
MMN0 Z A sndA VNB nfet_01v8 m=2 w=0.65 l=0.15 mult=1 sa=0.265 sb=0.265
+ sd=0.28 topography=normal area=0.063 perim=1.14
MMN1 sndA TE VGND VNB nfet_01v8 m=2 w=0.65 l=0.15 mult=1 sa=0.265
+ sb=0.265 sd=0.28 topography=normal area=0.063 perim=1.14
MMIN1 TEB TE VGND VNB nfet_01v8 m=1 w=0.42 l=0.15 mult=1 sa=0.265
+ sb=0.265 sd=0.28 topography=normal area=0.063 perim=1.14
MMP0 VPWR TEB sndTEB VPB pfet_01v8_hvt m=2 w=0.94 l=0.15 mult=1
+ sa=0.265 sb=0.265 sd=0.28 topography=normal area=0.063 perim=1.14
MMP1 sndTEB A Z VPB pfet_01v8_hvt m=2 w=1.0 l=0.15 mult=1 sa=0.265
+ sb=0.265 sd=0.28 topography=normal area=0.063 perim=1.14
MMIP1 TEB TE VPWR VPB pfet_01v8_hvt m=1 w=0.64 l=0.15 mult=1 sa=0.265
+ sb=0.265 sd=0.28 topography=normal area=0.063 perim=1.14
.ENDS




.SUBCKT sky130_fd_sc_hd__einvp_8 A TE VGND VNB VPB VPWR Z
MMN0 Z A sndA VNB nfet_01v8 m=8 w=0.65 l=0.15 mult=1 sa=0.265 sb=0.265
+ sd=0.28 topography=normal area=0.063 perim=1.14
MMN1 sndA TE VGND VNB nfet_01v8 m=8 w=0.65 l=0.15 mult=1 sa=0.265
+ sb=0.265 sd=0.28 topography=normal area=0.063 perim=1.14
MMIN1 TEB TE VGND VNB nfet_01v8 m=1 w=0.65 l=0.15 mult=1 sa=0.265
+ sb=0.265 sd=0.28 topography=normal area=0.063 perim=1.14
MMP0 VPWR TEB sndTEB VPB pfet_01v8_hvt m=8 w=0.94 l=0.15 mult=1
+ sa=0.265 sb=0.265 sd=0.28 topography=normal area=0.063 perim=1.14
MMP1 sndTEB A Z VPB pfet_01v8_hvt m=8 w=1.0 l=0.15 mult=1 sa=0.265
+ sb=0.265 sd=0.28 topography=normal area=0.063 perim=1.14
MMIP1 TEB TE VPWR VPB pfet_01v8_hvt m=1 w=1.0 l=0.15 mult=1 sa=0.265
+ sb=0.265 sd=0.28 topography=normal area=0.063 perim=1.14
.ENDS




.SUBCKT sky130_fd_sc_hd__einvp_1 A TE VGND VNB VPB VPWR Z
MMN0 Z A sndA VNB nfet_01v8 m=1 w=0.65 l=0.15 mult=1 sa=0.265 sb=0.265
+ sd=0.28 topography=normal area=0.063 perim=1.14
MMN1 sndA TE VGND VNB nfet_01v8 m=1 w=0.65 l=0.15 mult=1 sa=0.265
+ sb=0.265 sd=0.28 topography=normal area=0.063 perim=1.14
MMIN1 TEB TE VGND VNB nfet_01v8 m=1 w=0.42 l=0.15 mult=1 sa=0.265
+ sb=0.265 sd=0.28 topography=normal area=0.063 perim=1.14
MMP0 VPWR TEB sndTEB VPB pfet_01v8_hvt m=1 w=1.0 l=0.15 mult=1
+ sa=0.265 sb=0.265 sd=0.28 topography=normal area=0.063 perim=1.14
MMP1 sndTEB A Z VPB pfet_01v8_hvt m=1 w=1.0 l=0.15 mult=1 sa=0.265
+ sb=0.265 sd=0.28 topography=normal area=0.063 perim=1.14
MMIP1 TEB TE VPWR VPB pfet_01v8_hvt m=1 w=0.42 l=0.15 mult=1 sa=0.265
+ sb=0.265 sd=0.28 topography=normal area=0.063 perim=1.14
.ENDS




.SUBCKT sky130_fd_sc_hd__or4_4 A B C D VGND VNB VPB VPWR X
MMP0 VPWR A sndPA VPB pfet_01v8_hvt m=1 w=1.0 l=0.15 mult=1 sa=0.265
+ sb=0.265 sd=0.28 topography=normal area=0.063 perim=1.14
MMP1 sndPA B sndPB VPB pfet_01v8_hvt m=1 w=1.0 l=0.15 mult=1 sa=0.265
+ sb=0.265 sd=0.28 topography=normal area=0.063 perim=1.14
MMP2 sndPB C sndPC VPB pfet_01v8_hvt m=1 w=1.0 l=0.15 mult=1 sa=0.265
+ sb=0.265 sd=0.28 topography=normal area=0.063 perim=1.14
MMP3 sndPC D y VPB pfet_01v8_hvt m=1 w=1.0 l=0.15 mult=1 sa=0.265
+ sb=0.265 sd=0.28 topography=normal area=0.063 perim=1.14
MMIP4 X y VPWR VPB pfet_01v8_hvt m=4 w=1.0 l=0.15 mult=1 sa=0.265
+ sb=0.265 sd=0.28 topography=normal area=0.063 perim=1.14
MMN0 y A VGND VNB nfet_01v8 m=1 w=0.65 l=0.15 mult=1 sa=0.265 sb=0.265
+ sd=0.28 topography=normal area=0.063 perim=1.14
MMN1 y B VGND VNB nfet_01v8 m=1 w=0.65 l=0.15 mult=1 sa=0.265 sb=0.265
+ sd=0.28 topography=normal area=0.063 perim=1.14
MMN2 y C VGND VNB nfet_01v8 m=1 w=0.65 l=0.15 mult=1 sa=0.265 sb=0.265
+ sd=0.28 topography=normal area=0.063 perim=1.14
MMN3 y D VGND VNB nfet_01v8 m=1 w=0.65 l=0.15 mult=1 sa=0.265 sb=0.265
+ sd=0.28 topography=normal area=0.063 perim=1.14
MMIN4 X y VGND VNB nfet_01v8 m=4 w=0.65 l=0.15 mult=1 sa=0.265
+ sb=0.265 sd=0.28 topography=normal area=0.063 perim=1.14
.ENDS




.SUBCKT sky130_fd_sc_hd__or4_1 A B C D VGND VNB VPB VPWR X
MMP0 VPWR A sndPA VPB pfet_01v8_hvt m=1 w=0.42 l=0.15 mult=1 sa=0.265
+ sb=0.265 sd=0.28 topography=normal area=0.063 perim=1.14
MMP1 sndPA B sndPB VPB pfet_01v8_hvt m=1 w=0.42 l=0.15 mult=1 sa=0.265
+ sb=0.265 sd=0.28 topography=normal area=0.063 perim=1.14
MMP2 sndPB C sndPC VPB pfet_01v8_hvt m=1 w=0.42 l=0.15 mult=1 sa=0.265
+ sb=0.265 sd=0.28 topography=normal area=0.063 perim=1.14
MMP3 sndPC D y VPB pfet_01v8_hvt m=1 w=0.42 l=0.15 mult=1 sa=0.265
+ sb=0.265 sd=0.28 topography=normal area=0.063 perim=1.14
MMIP4 X y VPWR VPB pfet_01v8_hvt m=1 w=1.0 l=0.15 mult=1 sa=0.265
+ sb=0.265 sd=0.28 topography=normal area=0.063 perim=1.14
MMN0 y A VGND VNB nfet_01v8 m=1 w=0.42 l=0.15 mult=1 sa=0.265 sb=0.265
+ sd=0.28 topography=normal area=0.063 perim=1.14
MMN1 y B VGND VNB nfet_01v8 m=1 w=0.42 l=0.15 mult=1 sa=0.265 sb=0.265
+ sd=0.28 topography=normal area=0.063 perim=1.14
MMN2 y C VGND VNB nfet_01v8 m=1 w=0.42 l=0.15 mult=1 sa=0.265 sb=0.265
+ sd=0.28 topography=normal area=0.063 perim=1.14
MMN3 y D VGND VNB nfet_01v8 m=1 w=0.42 l=0.15 mult=1 sa=0.265 sb=0.265
+ sd=0.28 topography=normal area=0.063 perim=1.14
MMIN4 X y VGND VNB nfet_01v8 m=1 w=0.65 l=0.15 mult=1 sa=0.265
+ sb=0.265 sd=0.28 topography=normal area=0.063 perim=1.14
.ENDS




.SUBCKT sky130_fd_sc_hd__or4_2 A B C D VGND VNB VPB VPWR X
MMP0 VPWR A sndPA VPB pfet_01v8_hvt m=1 w=0.42 l=0.15 mult=1 sa=0.265
+ sb=0.265 sd=0.28 topography=normal area=0.063 perim=1.14
MMP1 sndPA B sndPB VPB pfet_01v8_hvt m=1 w=0.42 l=0.15 mult=1 sa=0.265
+ sb=0.265 sd=0.28 topography=normal area=0.063 perim=1.14
MMP2 sndPB C sndPC VPB pfet_01v8_hvt m=1 w=0.42 l=0.15 mult=1 sa=0.265
+ sb=0.265 sd=0.28 topography=normal area=0.063 perim=1.14
MMP3 sndPC D y VPB pfet_01v8_hvt m=1 w=0.42 l=0.15 mult=1 sa=0.265
+ sb=0.265 sd=0.28 topography=normal area=0.063 perim=1.14
MMIP4 X y VPWR VPB pfet_01v8_hvt m=2 w=1.0 l=0.15 mult=1 sa=0.265
+ sb=0.265 sd=0.28 topography=normal area=0.063 perim=1.14
MMN0 y A VGND VNB nfet_01v8 m=1 w=0.42 l=0.15 mult=1 sa=0.265 sb=0.265
+ sd=0.28 topography=normal area=0.063 perim=1.14
MMN1 y B VGND VNB nfet_01v8 m=1 w=0.42 l=0.15 mult=1 sa=0.265 sb=0.265
+ sd=0.28 topography=normal area=0.063 perim=1.14
MMN2 y C VGND VNB nfet_01v8 m=1 w=0.42 l=0.15 mult=1 sa=0.265 sb=0.265
+ sd=0.28 topography=normal area=0.063 perim=1.14
MMN3 y D VGND VNB nfet_01v8 m=1 w=0.42 l=0.15 mult=1 sa=0.265 sb=0.265
+ sd=0.28 topography=normal area=0.063 perim=1.14
MMIN4 X y VGND VNB nfet_01v8 m=2 w=0.65 l=0.15 mult=1 sa=0.265
+ sb=0.265 sd=0.28 topography=normal area=0.063 perim=1.14
.ENDS




.SUBCKT sky130_fd_sc_hd__o211a_2 A1 A2 B1 C1 VGND VNB VPB VPWR X
MMPA0 VPWR A1 sndA1 VPB pfet_01v8_hvt m=1 w=1.0 l=0.15 mult=1 sa=0.265
+ sb=0.265 sd=0.28 topography=normal area=0.063 perim=1.14
MMPA1 sndA1 A2 y VPB pfet_01v8_hvt m=1 w=1.0 l=0.15 mult=1 sa=0.265
+ sb=0.265 sd=0.28 topography=normal area=0.063 perim=1.14
MMPB0 VPWR B1 y VPB pfet_01v8_hvt m=1 w=1.0 l=0.15 mult=1 sa=0.265
+ sb=0.265 sd=0.28 topography=normal area=0.063 perim=1.14
MMPC0 VPWR C1 y VPB pfet_01v8_hvt m=1 w=1.0 l=0.15 mult=1 sa=0.265
+ sb=0.265 sd=0.28 topography=normal area=0.063 perim=1.14
MMIPX X y VPWR VPB pfet_01v8_hvt m=2 w=1.0 l=0.15 mult=1 sa=0.265
+ sb=0.265 sd=0.28 topography=normal area=0.063 perim=1.14
MMNA0 pndA A1 VGND VNB nfet_01v8 m=1 w=0.65 l=0.15 mult=1 sa=0.265
+ sb=0.265 sd=0.28 topography=normal area=0.063 perim=1.14
MMNA1 pndA A2 VGND VNB nfet_01v8 m=1 w=0.65 l=0.15 mult=1 sa=0.265
+ sb=0.265 sd=0.28 topography=normal area=0.063 perim=1.14
MMNB0 pndB B1 pndA VNB nfet_01v8 m=1 w=0.65 l=0.15 mult=1 sa=0.265
+ sb=0.265 sd=0.28 topography=normal area=0.063 perim=1.14
MMNC0 y C1 pndB VNB nfet_01v8 m=1 w=0.65 l=0.15 mult=1 sa=0.265
+ sb=0.265 sd=0.28 topography=normal area=0.063 perim=1.14
MMINX X y VGND VNB nfet_01v8 m=2 w=0.65 l=0.15 mult=1 sa=0.265
+ sb=0.265 sd=0.28 topography=normal area=0.063 perim=1.14
.ENDS




.SUBCKT sky130_fd_sc_hd__o211a_4 A1 A2 B1 C1 VGND VNB VPB VPWR X
MMPA0 VPWR A1 sndA1 VPB pfet_01v8_hvt m=2 w=1.0 l=0.15 mult=1 sa=0.265
+ sb=0.265 sd=0.28 topography=normal area=0.063 perim=1.14
MMPA1 sndA1 A2 y VPB pfet_01v8_hvt m=2 w=1.0 l=0.15 mult=1 sa=0.265
+ sb=0.265 sd=0.28 topography=normal area=0.063 perim=1.14
MMPB0 VPWR B1 y VPB pfet_01v8_hvt m=2 w=1.0 l=0.15 mult=1 sa=0.265
+ sb=0.265 sd=0.28 topography=normal area=0.063 perim=1.14
MMPC0 VPWR C1 y VPB pfet_01v8_hvt m=2 w=1.0 l=0.15 mult=1 sa=0.265
+ sb=0.265 sd=0.28 topography=normal area=0.063 perim=1.14
MMIPX X y VPWR VPB pfet_01v8_hvt m=4 w=1.0 l=0.15 mult=1 sa=0.265
+ sb=0.265 sd=0.28 topography=normal area=0.063 perim=1.14
MMNA0 pndA A1 VGND VNB nfet_01v8 m=2 w=0.65 l=0.15 mult=1 sa=0.265
+ sb=0.265 sd=0.28 topography=normal area=0.063 perim=1.14
MMNA1 pndA A2 VGND VNB nfet_01v8 m=2 w=0.65 l=0.15 mult=1 sa=0.265
+ sb=0.265 sd=0.28 topography=normal area=0.063 perim=1.14
MMNB0 pndB B1 pndA VNB nfet_01v8 m=2 w=0.65 l=0.15 mult=1 sa=0.265
+ sb=0.265 sd=0.28 topography=normal area=0.063 perim=1.14
MMNC0 y C1 pndB VNB nfet_01v8 m=2 w=0.65 l=0.15 mult=1 sa=0.265
+ sb=0.265 sd=0.28 topography=normal area=0.063 perim=1.14
MMINX X y VGND VNB nfet_01v8 m=4 w=0.65 l=0.15 mult=1 sa=0.265
+ sb=0.265 sd=0.28 topography=normal area=0.063 perim=1.14
.ENDS




.SUBCKT sky130_fd_sc_hd__o211a_1 A1 A2 B1 C1 VGND VNB VPB VPWR X
MMPA0 VPWR A1 sndA1 VPB pfet_01v8_hvt m=1 w=1.0 l=0.15 mult=1 sa=0.265
+ sb=0.265 sd=0.28 topography=normal area=0.063 perim=1.14
MMPA1 sndA1 A2 y VPB pfet_01v8_hvt m=1 w=1.0 l=0.15 mult=1 sa=0.265
+ sb=0.265 sd=0.28 topography=normal area=0.063 perim=1.14
MMPB0 VPWR B1 y VPB pfet_01v8_hvt m=1 w=1.0 l=0.15 mult=1 sa=0.265
+ sb=0.265 sd=0.28 topography=normal area=0.063 perim=1.14
MMPC0 VPWR C1 y VPB pfet_01v8_hvt m=1 w=1.0 l=0.15 mult=1 sa=0.265
+ sb=0.265 sd=0.28 topography=normal area=0.063 perim=1.14
MMIPX X y VPWR VPB pfet_01v8_hvt m=1 w=1.0 l=0.15 mult=1 sa=0.265
+ sb=0.265 sd=0.28 topography=normal area=0.063 perim=1.14
MMNA0 pndA A1 VGND VNB nfet_01v8 m=1 w=0.65 l=0.15 mult=1 sa=0.265
+ sb=0.265 sd=0.28 topography=normal area=0.063 perim=1.14
MMNA1 pndA A2 VGND VNB nfet_01v8 m=1 w=0.65 l=0.15 mult=1 sa=0.265
+ sb=0.265 sd=0.28 topography=normal area=0.063 perim=1.14
MMNB0 pndB B1 pndA VNB nfet_01v8 m=1 w=0.65 l=0.15 mult=1 sa=0.265
+ sb=0.265 sd=0.28 topography=normal area=0.063 perim=1.14
MMNC0 y C1 pndB VNB nfet_01v8 m=1 w=0.65 l=0.15 mult=1 sa=0.265
+ sb=0.265 sd=0.28 topography=normal area=0.063 perim=1.14
MMINX X y VGND VNB nfet_01v8 m=1 w=0.65 l=0.15 mult=1 sa=0.265
+ sb=0.265 sd=0.28 topography=normal area=0.063 perim=1.14
.ENDS




.SUBCKT sky130_fd_sc_hd__dfrbp_1 CLK D RESET_B VGND VNB VPB VPWR Q Q_N
MI46 clkpos clkneg VGND VNB nfet_01v8 m=1 w=0.42 l=0.15 mult=1
+ sa=0.265 sb=0.265 sd=0.28 topography=normal area=0.063 perim=1.14
MI42 db clkneg M0 VNB nfet_01v8 m=1 w=0.36 l=0.15 mult=1 sa=0.265
+ sb=0.265 sd=0.28 topography=normal area=0.063 perim=1.14
MI656 net99 s0 net125 VNB nfet_01v8 m=1 w=0.42 l=0.15 mult=1 sa=0.265
+ sb=0.265 sd=0.28 topography=normal area=0.063 perim=1.14
MI657 net125 RESET_B VGND VNB nfet_01v8 m=1 w=0.42 l=0.15 mult=1
+ sa=0.265 sb=0.265 sd=0.28 topography=normal area=0.063 perim=1.14
MI33 net118 RESET_B VGND VNB nfet_01v8 m=1 w=0.42 l=0.15 mult=1
+ sa=0.265 sb=0.265 sd=0.28 topography=normal area=0.063 perim=1.14
MI4 M0 clkpos net110 VNB nfet_01v8 m=1 w=0.36 l=0.15 mult=1 sa=0.265
+ sb=0.265 sd=0.28 topography=normal area=0.063 perim=1.14
MI34 net110 M1 net118 VNB nfet_01v8 m=1 w=0.42 l=0.15 mult=1 sa=0.265
+ sb=0.265 sd=0.28 topography=normal area=0.063 perim=1.14
MI655 s0 clkneg net98 VNB nfet_01v8 m=1 w=0.36 l=0.15 mult=1 sa=0.265
+ sb=0.265 sd=0.28 topography=normal area=0.063 perim=1.14
MI653 Q net99 VGND VNB nfet_01v8 m=1 w=0.65 l=0.15 mult=1 sa=0.265
+ sb=0.265 sd=0.28 topography=normal area=0.063 perim=1.14
MI654 net98 net99 VGND VNB nfet_01v8 m=1 w=0.42 l=0.15 mult=1 sa=0.265
+ sb=0.265 sd=0.28 topography=normal area=0.063 perim=1.14
MI44 clkneg CLK VGND VNB nfet_01v8 m=1 w=0.42 l=0.15 mult=1 sa=0.265
+ sb=0.265 sd=0.28 topography=normal area=0.063 perim=1.14
MI647 M1 M0 VGND VNB nfet_01v8 m=1 w=0.64 l=0.15 mult=1 sa=0.265
+ sb=0.265 sd=0.28 topography=normal area=0.063 perim=1.14
MI39 db D VGND VNB nfet_01v8 m=1 w=0.42 l=0.15 mult=1 sa=0.265
+ sb=0.265 sd=0.28 topography=normal area=0.063 perim=1.14
MI649 M1 clkpos s0 VNB nfet_01v8 m=1 w=0.36 l=0.15 mult=1 sa=0.265
+ sb=0.265 sd=0.28 topography=normal area=0.063 perim=1.14
MI53 net142 net99 VGND VNB nfet_01v8 m=1 w=0.42 l=0.15 mult=1 sa=0.265
+ sb=0.265 sd=0.28 topography=normal area=0.063 perim=1.14
MI50 Q_N net142 VGND VNB nfet_01v8 m=1 w=0.65 l=0.15 mult=1 sa=0.265
+ sb=0.265 sd=0.28 topography=normal area=0.063 perim=1.14
MI47 clkpos clkneg VPWR VPB pfet_01v8_hvt m=1 w=0.64 l=0.15 mult=1
+ sa=0.265 sb=0.265 sd=0.28 topography=normal area=0.063 perim=1.14
MI43 db clkpos M0 VPB pfet_01v8_hvt m=1 w=0.42 l=0.15 mult=1 sa=0.265
+ sb=0.265 sd=0.28 topography=normal area=0.063 perim=1.14
MI662 net190 net99 VPWR VPB pfet_01v8_hvt m=1 w=0.42 l=0.15 mult=1
+ sa=0.265 sb=0.265 sd=0.28 topography=normal area=0.063 perim=1.14
MI659 net99 RESET_B VPWR VPB pfet_01v8_hvt m=1 w=0.42 l=0.15 mult=1
+ sa=0.265 sb=0.265 sd=0.28 topography=normal area=0.063 perim=1.14
MI664 s0 clkpos net190 VPB pfet_01v8_hvt m=1 w=0.42 l=0.15 mult=1
+ sa=0.265 sb=0.265 sd=0.28 topography=normal area=0.063 perim=1.14
MI658 net99 s0 VPWR VPB pfet_01v8_hvt m=1 w=0.42 l=0.15 mult=1
+ sa=0.265 sb=0.265 sd=0.28 topography=normal area=0.063 perim=1.14
MI30 net169 M1 VPWR VPB pfet_01v8_hvt m=1 w=0.42 l=0.15 mult=1
+ sa=0.265 sb=0.265 sd=0.28 topography=normal area=0.063 perim=1.14
MI31 M0 clkneg net169 VPB pfet_01v8_hvt m=1 w=0.42 l=0.15 mult=1
+ sa=0.265 sb=0.265 sd=0.28 topography=normal area=0.063 perim=1.14
MI32 net169 RESET_B VPWR VPB pfet_01v8_hvt m=1 w=0.42 l=0.15 mult=1
+ sa=0.265 sb=0.265 sd=0.28 topography=normal area=0.063 perim=1.14
MI660 Q net99 VPWR VPB pfet_01v8_hvt m=1 w=1.0 l=0.15 mult=1 sa=0.265
+ sb=0.265 sd=0.28 topography=normal area=0.063 perim=1.14
MI45 clkneg CLK VPWR VPB pfet_01v8_hvt m=1 w=0.64 l=0.15 mult=1
+ sa=0.265 sb=0.265 sd=0.28 topography=normal area=0.063 perim=1.14
MI648 M1 M0 VPWR VPB pfet_01v8_hvt m=1 w=0.84 l=0.15 mult=1 sa=0.265
+ sb=0.265 sd=0.28 topography=normal area=0.063 perim=1.14
MI40 db D VPWR VPB pfet_01v8_hvt m=1 w=0.42 l=0.15 mult=1 sa=0.265
+ sb=0.265 sd=0.28 topography=normal area=0.063 perim=1.14
MI650 M1 clkneg s0 VPB pfet_01v8_hvt m=1 w=0.42 l=0.15 mult=1 sa=0.265
+ sb=0.265 sd=0.28 topography=normal area=0.063 perim=1.14
MI52 net142 net99 VPWR VPB pfet_01v8_hvt m=1 w=0.64 l=0.15 mult=1
+ sa=0.265 sb=0.265 sd=0.28 topography=normal area=0.063 perim=1.14
MI51 Q_N net142 VPWR VPB pfet_01v8_hvt m=1 w=1.0 l=0.15 mult=1
+ sa=0.265 sb=0.265 sd=0.28 topography=normal area=0.063 perim=1.14
.ENDS




.SUBCKT sky130_fd_sc_hd__dfrbp_2 CLK D RESET_B VGND VNB VPB VPWR Q Q_N
MI46 clkpos clkneg VGND VNB nfet_01v8 m=1 w=0.42 l=0.15 mult=1
+ sa=0.265 sb=0.265 sd=0.28 topography=normal area=0.063 perim=1.14
MI42 db clkneg M0 VNB nfet_01v8 m=1 w=0.36 l=0.15 mult=1 sa=0.265
+ sb=0.265 sd=0.28 topography=normal area=0.063 perim=1.14
MI656 net99 s0 net125 VNB nfet_01v8 m=1 w=0.42 l=0.15 mult=1 sa=0.265
+ sb=0.265 sd=0.28 topography=normal area=0.063 perim=1.14
MI657 net125 RESET_B VGND VNB nfet_01v8 m=1 w=0.42 l=0.15 mult=1
+ sa=0.265 sb=0.265 sd=0.28 topography=normal area=0.063 perim=1.14
MI33 net118 RESET_B VGND VNB nfet_01v8 m=1 w=0.42 l=0.15 mult=1
+ sa=0.265 sb=0.265 sd=0.28 topography=normal area=0.063 perim=1.14
MI4 M0 clkpos net110 VNB nfet_01v8 m=1 w=0.36 l=0.15 mult=1 sa=0.265
+ sb=0.265 sd=0.28 topography=normal area=0.063 perim=1.14
MI34 net110 M1 net118 VNB nfet_01v8 m=1 w=0.42 l=0.15 mult=1 sa=0.265
+ sb=0.265 sd=0.28 topography=normal area=0.063 perim=1.14
MI655 s0 clkneg net98 VNB nfet_01v8 m=1 w=0.36 l=0.15 mult=1 sa=0.265
+ sb=0.265 sd=0.28 topography=normal area=0.063 perim=1.14
MI653 Q net99 VGND VNB nfet_01v8 m=2 w=0.65 l=0.15 mult=1 sa=0.265
+ sb=0.265 sd=0.28 topography=normal area=0.063 perim=1.14
MI654 net98 net99 VGND VNB nfet_01v8 m=1 w=0.42 l=0.15 mult=1 sa=0.265
+ sb=0.265 sd=0.28 topography=normal area=0.063 perim=1.14
MI44 clkneg CLK VGND VNB nfet_01v8 m=1 w=0.42 l=0.15 mult=1 sa=0.265
+ sb=0.265 sd=0.28 topography=normal area=0.063 perim=1.14
MI647 M1 M0 VGND VNB nfet_01v8 m=1 w=0.64 l=0.15 mult=1 sa=0.265
+ sb=0.265 sd=0.28 topography=normal area=0.063 perim=1.14
MI39 db D VGND VNB nfet_01v8 m=1 w=0.42 l=0.15 mult=1 sa=0.265
+ sb=0.265 sd=0.28 topography=normal area=0.063 perim=1.14
MI649 M1 clkpos s0 VNB nfet_01v8 m=1 w=0.36 l=0.15 mult=1 sa=0.265
+ sb=0.265 sd=0.28 topography=normal area=0.063 perim=1.14
MI53 net142 net99 VGND VNB nfet_01v8 m=1 w=0.42 l=0.15 mult=1 sa=0.265
+ sb=0.265 sd=0.28 topography=normal area=0.063 perim=1.14
MI50 Q_N net142 VGND VNB nfet_01v8 m=2 w=0.65 l=0.15 mult=1 sa=0.265
+ sb=0.265 sd=0.28 topography=normal area=0.063 perim=1.14
MI47 clkpos clkneg VPWR VPB pfet_01v8_hvt m=1 w=0.64 l=0.15 mult=1
+ sa=0.265 sb=0.265 sd=0.28 topography=normal area=0.063 perim=1.14
MI43 db clkpos M0 VPB pfet_01v8_hvt m=1 w=0.42 l=0.15 mult=1 sa=0.265
+ sb=0.265 sd=0.28 topography=normal area=0.063 perim=1.14
MI662 net181 net99 VPWR VPB pfet_01v8_hvt m=1 w=0.42 l=0.15 mult=1
+ sa=0.265 sb=0.265 sd=0.28 topography=normal area=0.063 perim=1.14
MI659 net99 RESET_B VPWR VPB pfet_01v8_hvt m=1 w=0.42 l=0.15 mult=1
+ sa=0.265 sb=0.265 sd=0.28 topography=normal area=0.063 perim=1.14
MI664 s0 clkpos net181 VPB pfet_01v8_hvt m=1 w=0.42 l=0.15 mult=1
+ sa=0.265 sb=0.265 sd=0.28 topography=normal area=0.063 perim=1.14
MI658 net99 s0 VPWR VPB pfet_01v8_hvt m=1 w=0.42 l=0.15 mult=1
+ sa=0.265 sb=0.265 sd=0.28 topography=normal area=0.063 perim=1.14
MI30 net169 M1 VPWR VPB pfet_01v8_hvt m=1 w=0.42 l=0.15 mult=1
+ sa=0.265 sb=0.265 sd=0.28 topography=normal area=0.063 perim=1.14
MI31 M0 clkneg net169 VPB pfet_01v8_hvt m=1 w=0.42 l=0.15 mult=1
+ sa=0.265 sb=0.265 sd=0.28 topography=normal area=0.063 perim=1.14
MI32 net169 RESET_B VPWR VPB pfet_01v8_hvt m=1 w=0.42 l=0.15 mult=1
+ sa=0.265 sb=0.265 sd=0.28 topography=normal area=0.063 perim=1.14
MI660 Q net99 VPWR VPB pfet_01v8_hvt m=2 w=1.0 l=0.15 mult=1 sa=0.265
+ sb=0.265 sd=0.28 topography=normal area=0.063 perim=1.14
MI45 clkneg CLK VPWR VPB pfet_01v8_hvt m=1 w=0.64 l=0.15 mult=1
+ sa=0.265 sb=0.265 sd=0.28 topography=normal area=0.063 perim=1.14
MI648 M1 M0 VPWR VPB pfet_01v8_hvt m=1 w=0.84 l=0.15 mult=1 sa=0.265
+ sb=0.265 sd=0.28 topography=normal area=0.063 perim=1.14
MI40 db D VPWR VPB pfet_01v8_hvt m=1 w=0.42 l=0.15 mult=1 sa=0.265
+ sb=0.265 sd=0.28 topography=normal area=0.063 perim=1.14
MI650 M1 clkneg s0 VPB pfet_01v8_hvt m=1 w=0.42 l=0.15 mult=1 sa=0.265
+ sb=0.265 sd=0.28 topography=normal area=0.063 perim=1.14
MI52 net142 net99 VPWR VPB pfet_01v8_hvt m=1 w=0.64 l=0.15 mult=1
+ sa=0.265 sb=0.265 sd=0.28 topography=normal area=0.063 perim=1.14
MI51 Q_N net142 VPWR VPB pfet_01v8_hvt m=2 w=1.0 l=0.15 mult=1
+ sa=0.265 sb=0.265 sd=0.28 topography=normal area=0.063 perim=1.14
.ENDS




.SUBCKT sky130_fd_sc_hd__o31ai_2 A1 A2 A3 B1 VGND VNB VPB VPWR Y
MMPA0 VPWR A1 sndA1 VPB pfet_01v8_hvt m=2 w=1.0 l=0.15 mult=1 sa=0.265
+ sb=0.265 sd=0.28 topography=normal area=0.063 perim=1.14
MMPA1 sndA1 A2 sndA2 VPB pfet_01v8_hvt m=2 w=1.0 l=0.15 mult=1
+ sa=0.265 sb=0.265 sd=0.28 topography=normal area=0.063 perim=1.14
MMPA2 sndA2 A3 Y VPB pfet_01v8_hvt m=2 w=1.0 l=0.15 mult=1 sa=0.265
+ sb=0.265 sd=0.28 topography=normal area=0.063 perim=1.14
MMPB0 VPWR B1 Y VPB pfet_01v8_hvt m=2 w=1.0 l=0.15 mult=1 sa=0.265
+ sb=0.265 sd=0.28 topography=normal area=0.063 perim=1.14
MMNA0 pndA A1 VGND VNB nfet_01v8 m=2 w=0.65 l=0.15 mult=1 sa=0.265
+ sb=0.265 sd=0.28 topography=normal area=0.063 perim=1.14
MMNA1 pndA A2 VGND VNB nfet_01v8 m=2 w=0.65 l=0.15 mult=1 sa=0.265
+ sb=0.265 sd=0.28 topography=normal area=0.063 perim=1.14
MMNA2 pndA A3 VGND VNB nfet_01v8 m=2 w=0.65 l=0.15 mult=1 sa=0.265
+ sb=0.265 sd=0.28 topography=normal area=0.063 perim=1.14
MMNB0 Y B1 pndA VNB nfet_01v8 m=2 w=0.65 l=0.15 mult=1 sa=0.265
+ sb=0.265 sd=0.28 topography=normal area=0.063 perim=1.14
.ENDS




.SUBCKT sky130_fd_sc_hd__o31ai_4 A1 A2 A3 B1 VGND VNB VPB VPWR Y
MMPA0 VPWR A1 sndA1 VPB pfet_01v8_hvt m=4 w=1.0 l=0.15 mult=1 sa=0.265
+ sb=0.265 sd=0.28 topography=normal area=0.063 perim=1.14
MMPA1 sndA1 A2 sndA2 VPB pfet_01v8_hvt m=4 w=1.0 l=0.15 mult=1
+ sa=0.265 sb=0.265 sd=0.28 topography=normal area=0.063 perim=1.14